Measured thermophysical data. Volumetric properties of binary mixtures of alkoxyethanols with ethyl tert-butyl ether at various temperatures
Source: J. Chem. Thermodyn., 2005
Compound 1: 2-methoxyethanol, C3H8O2, purity 99%
Compound 2: 2-(2-methoxyethoxy)ethanol, C5H12O3, purity 98%
Compound 3: 2-[2-(2-methoxyethoxy)ethoxy]-ethanol, C7H16O4, purity 97%
Compound 4: tert-butyl ethyl ether, C6H14O, purity 97%

System: 2-methoxyethanol + tert-butyl ethyl ether; phases: Liquid
Fixed: Pressure, kPa = 101.3
Property: Mass density, kg/m3 (Liquid); method: Pycnometric method
Temperature, K	Mole fraction of tert-butyl ethyl ether	Mass density, kg/m3	uncertainty
293.15	0	964.88	.05
293.15	.0501	950.05	.05
293.15	.1	936.06	.05
